#
# Generated from file heptanesymp159_mec.txt
# by ck2cti on Wed Apr 19 09:28:34 2006
#
# Transport data from file heptanesymp_trans.txt.

units(length = "cm", time = "s", quantity = "mol", act_energy = "cal/mol")

ideal_gas(name = "equil_gas",
      elements = " N  C  H  O ",
      species = """ N2  CH4  H2  OH  H2O  O  C2H6  CO  CO2  O2
                   C2H2  NC7H16
                """,
      reactions = "none",
      transport = "Mix",
      initial_state = state(temperature = 300.0,
                        pressure = OneAtm)    )


ideal_gas(name = "gas",
      elements = " N  C  H  O ",
      species = """ N2  CH3  H  CH4  H2  OH  H2O  O  C2H6  C2H5 
                   HCO  CO  CO2  O2  H2O2  HO2  C2H4  CH3OH  CH2OH  CH3O 
                   CH2O  C2H2  C2H3  C2H  HCCO  CH2  CH  CH2CO  CH2(s)  PC2H4OH 
                   CH3CO  CH3CHO  C3H5-S  C3H4-P  C3H5-A  C3H6  C3H4-A  CH3CHCO  C3H5-T  C4H6 
                   NC3H7  IC3H7  C3H8  C5H9  C4H7  C4H8-1  SC4H9  PC4H9  CH3COCH3  CH3COCH2 
                   C2H5CO  C2H5CHO  C5H10-1  CH2CHO  C5H11-1  C5H11-2  C2H5O  C2H5O2  CH3O2  CH3O2H 
                   C3H2  O2C2H4OH  C2H4O2H  C2H3CO  C2H3CHO  C3H5O  C3H6O1-2  C3H6OOH1-2  C3H6OOH2-1  NC3H7O 
                   IC3H7O  NC3H7O2  IC3H7O2  C4H7O  C4H8OOH1-3O2  C4H8OOH1-3  NC4KET13  C4H8OOH1-2  C4H8O1-3  PC4H9O2 
                   C3H3  HOCHO  C2H3O1,2  NC3H7CHO  NC3H7CO  C3H6CHO-2  CH2CH2COCH3  C2H5COCH2  C2H5COC2H4P  NC3H7COCH2 
                   NC4H9CHO  NC4H9CO  HOCH2O  C6H13-1  C6H12-1  C6H11  NC7H16  C7H15-1  C7H15-2  C7H15-3 
                   C7H15-4  C7H15O2-1  C7H15O2H-1  C7H15O2-2  C7H15O2H-2  C7H15O2-3  C7H15O2H-3  C7H14-1  C7H14-2  C7H14-3 
                   C7H13  C7H15O2-4  C7H15O-1  C7H15O-2  C7H15O-3  C7H14OOH1-2  C7H14OOH1-3  C7H14OOH1-4  C7H14OOH2-3  C7H14OOH2-4 
                   C7H14OOH2-5  C7H14OOH3-1  C7H14OOH3-2  C7H14OOH3-4  C7H14OOH3-5  C7H14OOH3-6  C7H14OOH4-2  C7H14OOH4-3  C7H14O1-3  C7H14O1-4 
                   C7H14O2-4  C7H14O2-5  C7H14O3-5  C7H14OOH1-3O2  C7H14OOH2-3O2  C7H14OOH2-4O2  C7H14OOH2-5O2  C7H14OOH3-1O2  C7H14OOH3-2O2  C7H14OOH3-4O2 
                   C7H14OOH3-5O2  C7H14OOH3-6O2  C7H14OOH4-2O2  C7H14OOH4-3O2  NC7KET13  NC7KET23  NC7KET24  NC7KET25  NC7KET31  NC7KET32 
                   NC7KET34  NC7KET35  NC7KET36  NC7KET42  NC7KET43  NC4H9COCH2  C4H7OOH1-4  C5H9OOH1-4  C4H7O1-4  C5H9O1-4 
                  """,
      reactions = "all",
      transport = "Mix",
      initial_state = state(temperature = 300.0,
                        pressure = OneAtm)    )



#-------------------------------------------------------------------------------
#  Species data 
#-------------------------------------------------------------------------------

species(name = "N2",
    atoms = " N:2 ",
    thermo = (
       NASA( [  300.00,  1000.00], [  3.298677000E+00,   1.408240000E-03, 
               -3.963222000E-06,   5.641515000E-09,  -2.444855000E-12,
               -1.020900000E+03,   3.950372000E+00] ),
       NASA( [ 1000.00,  5000.00], [  2.926640000E+00,   1.487977000E-03, 
               -5.684761000E-07,   1.009704000E-10,  -6.753351000E-15,
               -9.227977000E+02,   5.980528000E+00] )
             ),
    transport = gas_transport(
                     geom = "linear",
                     diam =     3.62,
                     well_depth =    97.53,
                     polar =     1.76,
                     rot_relax =     4.00),
    note = "121286"
       )

species(name = "CH3",
    atoms = " C:1  H:3 ",
    thermo = (
       NASA( [  300.00,  1000.00], [  2.430443000E+00,   1.112410000E-02, 
               -1.680220000E-05,   1.621829000E-08,  -5.864953000E-12,
                1.642378000E+04,   6.789794000E+00] ),
       NASA( [ 1000.00,  5000.00], [  2.844052000E+00,   6.137974000E-03, 
               -2.230345000E-06,   3.785161000E-10,  -2.452159000E-14,
                1.643781000E+04,   5.452697000E+00] )
             ),
    transport = gas_transport(
                     geom = "linear",
                     diam =     3.80,
                     well_depth =   144.00),
    note = "121286"
       )

species(name = "H",
    atoms = " H:1 ",
    thermo = (
       NASA( [  300.00,  1000.00], [  2.500000000E+00,   0.000000000E+00, 
                0.000000000E+00,   0.000000000E+00,   0.000000000E+00,
                2.547163000E+04,  -4.601176000E-01] ),
       NASA( [ 1000.00,  5000.00], [  2.500000000E+00,   0.000000000E+00, 
                0.000000000E+00,   0.000000000E+00,   0.000000000E+00,
                2.547163000E+04,  -4.601176000E-01] )
             ),
    transport = gas_transport(
                     geom = "atom",
                     diam =     2.05,
                     well_depth =   145.00),
    note = "120186"
       )

species(name = "CH4",
    atoms = " C:1  H:4 ",
    thermo = (
       NASA( [  300.00,  1000.00], [  7.787415000E-01,   1.747668000E-02, 
               -2.783409000E-05,   3.049708000E-08,  -1.223931000E-11,
               -9.825229000E+03,   1.372219000E+01] ),
       NASA( [ 1000.00,  5000.00], [  1.683479000E+00,   1.023724000E-02, 
               -3.875129000E-06,   6.785585000E-10,  -4.503423000E-14,
               -1.008079000E+04,   9.623395000E+00] )
             ),
    transport = gas_transport(
                     geom = "nonlinear",
                     diam =     3.75,
                     well_depth =   141.40,
                     polar =     2.60,
                     rot_relax =    13.00),
    note = "121286"
       )

species(name = "H2",
    atoms = " H:2 ",
    thermo = (
       NASA( [  300.00,  1000.00], [  3.298124000E+00,   8.249442000E-04, 
               -8.143015000E-07,  -9.475434000E-11,   4.134872000E-13,
               -1.012521000E+03,  -3.294094000E+00] ),
       NASA( [ 1000.00,  5000.00], [  2.991423000E+00,   7.000644000E-04, 
               -5.633829000E-08,  -9.231578000E-12,   1.582752000E-15,
               -8.350340000E+02,  -1.355110000E+00] )
             ),
    transport = gas_transport(
                     geom = "linear",
                     diam =     2.92,
                     well_depth =    38.00,
                     polar =     0.79,
                     rot_relax =   280.00),
    note = "121286"
       )

species(name = "OH",
    atoms = " H:1  O:1 ",
    thermo = (
       NASA( [  300.00,  1357.00], [  3.435862190E+00,   2.022358040E-04, 
               -1.135464120E-07,   2.424451490E-10,  -7.436510310E-14,
                3.743212520E+03,   2.450141270E+00] ),
       NASA( [ 1357.00,  5000.00], [  2.625997540E+00,   1.319924060E-03, 
               -3.597246700E-07,   4.256308000E-11,  -1.820480160E-15,
                4.120853740E+03,   7.106673070E+00] )
             ),
    transport = gas_transport(
                     geom = "linear",
                     diam =     2.75,
                     well_depth =    80.00),
    note = "8/12/99 therm"
       )

species(name = "H2O",
    atoms = " H:2  O:1 ",
    thermo = (
       NASA( [  300.00,  1000.00], [  3.386842000E+00,   3.474982000E-03, 
               -6.354696000E-06,   6.968581000E-09,  -2.506588000E-12,
               -3.020811000E+04,   2.590233000E+00] ),
       NASA( [ 1000.00,  5000.00], [  2.672146000E+00,   3.056293000E-03, 
               -8.730260000E-07,   1.200996000E-10,  -6.391618000E-15,
               -2.989921000E+04,   6.862817000E+00] )
             ),
    transport = gas_transport(
                     geom = "nonlinear",
                     diam =     2.60,
                     well_depth =   572.40,
                     dipole =     1.84,
                     rot_relax =     4.00),
    note = "20387"
       )

species(name = "O",
    atoms = " O:1 ",
    thermo = (
       NASA( [  300.00,  1000.00], [  2.946429000E+00,  -1.638166000E-03, 
                2.421032000E-06,  -1.602843000E-09,   3.890696000E-13,
                2.914764000E+04,   2.963995000E+00] ),
       NASA( [ 1000.00,  5000.00], [  2.542060000E+00,  -2.755062000E-05, 
               -3.102803000E-09,   4.551067000E-12,  -4.368052000E-16,
                2.923080000E+04,   4.920308000E+00] )
             ),
    transport = gas_transport(
                     geom = "atom",
                     diam =     2.75,
                     well_depth =    80.00),
    note = "120186"
       )

species(name = "C2H6",
    atoms = " C:2  H:6 ",
    thermo = (
       NASA( [  300.00,  1384.00], [ -2.528543440E-02,   2.407647540E-02, 
               -1.118934720E-05,   2.083409010E-09,  -5.298686160E-14,
               -1.123455340E+04,   2.116487500E+01] ),
       NASA( [ 1384.00,  5000.00], [  6.106833850E+00,   1.292363610E-02, 
               -4.425271960E-06,   6.873917260E-10,  -3.989017320E-14,
               -1.375000140E+04,  -1.300812500E+01] )
             ),
    transport = gas_transport(
                     geom = "nonlinear",
                     diam =     4.35,
                     well_depth =   247.50,
                     rot_relax =     1.50),
    note = "1/14/95 therm"
       )

species(name = "C2H5",
    atoms = " C:2  H:5 ",
    thermo = (
       NASA( [  300.00,  1000.00], [  2.690702000E+00,   8.719133000E-03, 
                4.419839000E-06,   9.338703000E-10,  -3.927773000E-12,
                1.287040000E+04,   1.213820000E+01] ),
       NASA( [ 1000.00,  5000.00], [  7.190480000E+00,   6.484077000E-03, 
               -6.428065000E-07,  -2.347879000E-10,   3.880877000E-14,
                1.067455000E+04,  -1.478089000E+01] )
             ),
    transport = gas_transport(
                     geom = "nonlinear",
                     diam =     4.35,
                     well_depth =   247.50,
                     rot_relax =     1.50),
    note = "12387"
       )

species(name = "HCO",
    atoms = " H:1  C:1  O:1 ",
    thermo = (
       NASA( [  300.00,  1000.00], [  2.898330000E+00,   6.199147000E-03, 
               -9.623084000E-06,   1.089825000E-08,  -4.574885000E-12,
                4.159922000E+03,   8.983614000E+00] ),
       NASA( [ 1000.00,  5000.00], [  3.557271000E+00,   3.345573000E-03, 
               -1.335006000E-06,   2.470573000E-10,  -1.713851000E-14,
                3.916324000E+03,   5.552299000E+00] )
             ),
    transport = gas_transport(
                     geom = "nonlinear",
                     diam =     3.59,
                     well_depth =   498.00),
    note = "121286"
       )

species(name = "CO",
    atoms = " C:1  O:1 ",
    thermo = (
       NASA( [  300.00,  1000.00], [  3.262452000E+00,   1.511941000E-03, 
               -3.881755000E-06,   5.581944000E-09,  -2.474951000E-12,
               -1.431054000E+04,   4.848897000E+00] ),
       NASA( [ 1000.00,  5000.00], [  3.025078000E+00,   1.442689000E-03, 
               -5.630828000E-07,   1.018581000E-10,  -6.910952000E-15,
               -1.426835000E+04,   6.108218000E+00] )
             ),
    transport = gas_transport(
                     geom = "linear",
                     diam =     3.65,
                     well_depth =    98.10,
                     polar =     1.95,
                     rot_relax =     1.80),
    note = "121286"
       )

species(name = "CO2",
    atoms = " C:1  O:2 ",
    thermo = (
       NASA( [  300.00,  1000.00], [  2.275725000E+00,   9.922072000E-03, 
               -1.040911000E-05,   6.866687000E-09,  -2.117280000E-12,
               -4.837314000E+04,   1.018849000E+01] ),
       NASA( [ 1000.00,  5000.00], [  4.453623000E+00,   3.140169000E-03, 
               -1.278411000E-06,   2.393997000E-10,  -1.669033000E-14,
               -4.896696000E+04,  -9.553959000E-01] )
             ),
    transport = gas_transport(
                     geom = "linear",
                     diam =     3.76,
                     well_depth =   244.00,
                     polar =     2.65,
                     rot_relax =     2.10),
    note = "121286"
       )

species(name = "O2",
    atoms = " O:2 ",
    thermo = (
       NASA( [  300.00,  1000.00], [  3.212936000E+00,   1.127486000E-03, 
               -5.756150000E-07,   1.313877000E-09,  -8.768554000E-13,
               -1.005249000E+03,   6.034738000E+00] ),
       NASA( [ 1000.00,  5000.00], [  3.697578000E+00,   6.135197000E-04, 
               -1.258842000E-07,   1.775281000E-11,  -1.136435000E-15,
               -1.233930000E+03,   3.189166000E+00] )
             ),
    transport = gas_transport(
                     geom = "linear",
                     diam =     3.46,
                     well_depth =   107.40,
                     polar =     1.60,
                     rot_relax =     3.80),
    note = "121386"
       )

species(name = "H2O2",
    atoms = " H:2  O:2 ",
    thermo = (
       NASA( [  300.00,  1000.00], [  3.388754000E+00,   6.569226000E-03, 
               -1.485013000E-07,  -4.625806000E-09,   2.471515000E-12,
               -1.766315000E+04,   6.785363000E+00] ),
       NASA( [ 1000.00,  5000.00], [  4.573167000E+00,   4.336136000E-03, 
               -1.474689000E-06,   2.348904000E-10,  -1.431654000E-14,
               -1.800696000E+04,   5.011370000E-01] )
             ),
    transport = gas_transport(
                     geom = "nonlinear",
                     diam =     3.46,
                     well_depth =   107.40,
                     rot_relax =     3.80),
    note = "120186"
       )

species(name = "HO2",
    atoms = " H:1  O:2 ",
    thermo = (
       NASA( [  300.00,  1390.00], [  3.183106560E+00,   3.667679500E-03, 
               -9.323851220E-07,  -3.258529190E-10,   1.511399120E-13,
                8.091810130E+02,   8.393710990E+00] ),
       NASA( [ 1390.00,  5000.00], [  4.105474230E+00,   2.384528350E-03, 
               -8.063479890E-07,   1.241917230E-10,  -7.164001080E-15,
                3.981276890E+02,   3.125158360E+00] )
             ),
    transport = gas_transport(
                     geom = "nonlinear",
                     diam =     3.46,
                     well_depth =   107.40,
                     rot_relax =     1.00),
    note = "8/12/99 therm"
       )

species(name = "C2H4",
    atoms = " C:2  H:4 ",
    thermo = (
       NASA( [  300.00,  1000.00], [ -8.614880000E-01,   2.796163000E-02, 
               -3.388677000E-05,   2.785152000E-08,  -9.737879000E-12,
                5.573046000E+03,   2.421149000E+01] ),
       NASA( [ 1000.00,  5000.00], [  3.528419000E+00,   1.148518000E-02, 
               -4.418385000E-06,   7.844601000E-10,  -5.266848000E-14,
                4.428289000E+03,   2.230389000E+00] )
             ),
    transport = gas_transport(
                     geom = "nonlinear",
                     diam =     3.50,
                     well_depth =   238.40,
                     rot_relax =     1.50),
    note = "121286"
       )

species(name = "CH3OH",
    atoms = " C:1  H:4  O:1 ",
    thermo = (
       NASA( [  300.00,  1000.00], [  2.660115000E+00,   7.341508000E-03, 
                7.170051000E-06,  -8.793194000E-09,   2.390570000E-12,
               -2.535348000E+04,   1.123263000E+01] ),
       NASA( [ 1000.00,  5000.00], [  4.029061000E+00,   9.376593000E-03, 
               -3.050254000E-06,   4.358793000E-10,  -2.224723000E-14,
               -2.615791000E+04,   2.378196000E+00] )
             ),
    transport = gas_transport(
                     geom = "nonlinear",
                     diam =     3.63,
                     well_depth =   481.80,
                     rot_relax =     1.00),
    note = "121686"
       )

species(name = "CH2OH",
    atoms = " H:3  C:1  O:1 ",
    thermo = (
       NASA( [  250.00,  1000.00], [  2.862628000E+00,   1.001527000E-02, 
               -5.285436000E-07,  -5.138540000E-09,   2.246041000E-12,
               -3.349679000E+03,   1.039794000E+01] ),
       NASA( [ 1000.00,  4000.00], [  6.327520000E+00,   3.608271000E-03, 
               -3.201547000E-07,  -1.938750000E-10,   3.509705000E-14,
               -4.474509000E+03,  -8.329366000E+00] )
             ),
    transport = gas_transport(
                     geom = "nonlinear",
                     diam =     3.69,
                     well_depth =   417.00,
                     dipole =     1.70,
                     rot_relax =     2.00),
    note = "120186"
       )

species(name = "CH3O",
    atoms = " C:1  H:3  O:1 ",
    thermo = (
       NASA( [  300.00,  1000.00], [  2.106204000E+00,   7.216595000E-03, 
                5.338472000E-06,  -7.377636000E-09,   2.075611000E-12,
                9.786011000E+02,   1.315218000E+01] ),
       NASA( [ 1000.00,  3000.00], [  3.770800000E+00,   7.871497000E-03, 
               -2.656384000E-06,   3.944431000E-10,  -2.112616000E-14,
                1.278325000E+02,   2.929575000E+00] )
             ),
    transport = gas_transport(
                     geom = "nonlinear",
                     diam =     3.69,
                     well_depth =   417.00,
                     dipole =     1.70,
                     rot_relax =     2.00),
    note = "121686"
       )

species(name = "CH2O",
    atoms = " C:1  H:2  O:1 ",
    thermo = (
       NASA( [  300.00,  1000.00], [  1.652731000E+00,   1.263144000E-02, 
               -1.888168000E-05,   2.050031000E-08,  -8.413237000E-12,
               -1.486540000E+04,   1.378482000E+01] ),
       NASA( [ 1000.00,  5000.00], [  2.995606000E+00,   6.681321000E-03, 
               -2.628955000E-06,   4.737153000E-10,  -3.212517000E-14,
               -1.532037000E+04,   6.912572000E+00] )
             ),
    transport = gas_transport(
                     geom = "nonlinear",
                     diam =     3.59,
                     well_depth =   498.00,
                     rot_relax =     2.00),
    note = "121286"
       )

species(name = "C2H2",
    atoms = " C:2  H:2 ",
    thermo = (
       NASA( [  300.00,  1000.00], [  2.013562000E+00,   1.519045000E-02, 
               -1.616319000E-05,   9.078992000E-09,  -1.912746000E-12,
                2.612444000E+04,   8.805378000E+00] ),
       NASA( [ 1000.00,  5000.00], [  4.436770000E+00,   5.376039000E-03, 
               -1.912817000E-06,   3.286379000E-10,  -2.156710000E-14,
                2.566766000E+04,  -2.800338000E+00] )
             ),
    transport = gas_transport(
                     geom = "linear",
                     diam =     3.72,
                     well_depth =   265.30,
                     rot_relax =     2.50),
    note = "121386"
       )

species(name = "C2H3",
    atoms = " C:2  H:3 ",
    thermo = (
       NASA( [  300.00,  1000.00], [  2.459276000E+00,   7.371476000E-03, 
                2.109873000E-06,  -1.321642000E-09,  -1.184784000E-12,
                3.335225000E+04,   1.155620000E+01] ),
       NASA( [ 1000.00,  5000.00], [  5.933468000E+00,   4.017746000E-03, 
               -3.966740000E-07,  -1.441267000E-10,   2.378644000E-14,
                3.185435000E+04,  -8.530313000E+00] )
             ),
    transport = gas_transport(
                     geom = "nonlinear",
                     diam =     3.72,
                     well_depth =   265.30,
                     rot_relax =     1.00),
    note = "12787"
       )

species(name = "C2H",
    atoms = " C:2  H:1 ",
    thermo = (
       NASA( [  300.00,  1000.00], [  2.737704000E+00,   8.048446000E-03, 
               -9.244310000E-06,   6.525259000E-09,  -1.939580000E-12,
                6.683813000E+04,   7.300220000E+00] ),
       NASA( [ 1000.00,  4000.00], [  3.986367000E+00,   3.143123000E-03, 
               -1.267243000E-06,   2.924363000E-10,  -2.716320000E-14,
                6.655884000E+04,   1.191063000E+00] )
             ),
    transport = gas_transport(
                     geom = "linear",
                     diam =     3.72,
                     well_depth =   265.30,
                     rot_relax =     2.50),
    note = "81193"
       )

species(name = "HCCO",
    atoms = " H:1  C:2  O:1 ",
    thermo = (
       NASA( [  300.00,  1000.00], [  5.047965000E+00,   4.453478000E-03, 
                2.268283000E-07,  -1.482095000E-09,   2.250742000E-13,
                1.965892000E+04,   4.818439000E-01] ),
       NASA( [ 1000.00,  4000.00], [  6.758073000E+00,   2.000400000E-03, 
               -2.027607000E-07,  -1.041132000E-10,   1.965165000E-14,
                1.901513000E+04,  -9.071262000E+00] )
             ),
    transport = gas_transport(
                     geom = "nonlinear",
                     diam =     2.50,
                     well_depth =   150.00,
                     rot_relax =     1.00),
    note = "32387"
       )

species(name = "CH2",
    atoms = " C:1  H:2 ",
    thermo = (
       NASA( [  250.00,  1000.00], [  3.762237000E+00,   1.159819000E-03, 
                2.489585000E-07,   8.800836000E-10,  -7.332435000E-13,
                4.536791000E+04,   1.712578000E+00] ),
       NASA( [ 1000.00,  4000.00], [  3.636408000E+00,   1.933057000E-03, 
               -1.687016000E-07,  -1.009899000E-10,   1.808256000E-14,
                4.534134000E+04,   2.156561000E+00] )
             ),
    transport = gas_transport(
                     geom = "linear",
                     diam =     3.80,
                     well_depth =   144.00),
    note = "120186"
       )

species(name = "CH",
    atoms = " C:1  H:1 ",
    thermo = (
       NASA( [  300.00,  1000.00], [  3.200202000E+00,   2.072876000E-03, 
               -5.134431000E-06,   5.733890000E-09,  -1.955533000E-12,
                7.045259000E+04,   3.331588000E+00] ),
       NASA( [ 1000.00,  5000.00], [  2.196223000E+00,   2.340381000E-03, 
               -7.058201000E-07,   9.007582000E-11,  -3.855040000E-15,
                7.086723000E+04,   9.178373000E+00] )
             ),
    transport = gas_transport(
                     geom = "linear",
                     diam =     2.75,
                     well_depth =    80.00),
    note = "121286"
       )

species(name = "CH2CO",
    atoms = " C:2  H:2  O:1 ",
    thermo = (
       NASA( [  300.00,  1000.00], [  2.974971000E+00,   1.211871000E-02, 
               -2.345046000E-06,  -6.466685000E-09,   3.905649000E-12,
               -7.632637000E+03,   8.673553000E+00] ),
       NASA( [ 1000.00,  5000.00], [  6.038817000E+00,   5.804840000E-03, 
               -1.920954000E-06,   2.794485000E-10,  -1.458868000E-14,
               -8.583402000E+03,  -7.657581000E+00] )
             ),
    transport = gas_transport(
                     geom = "nonlinear",
                     diam =     3.97,
                     well_depth =   436.00,
                     rot_relax =     2.00),
    note = "121686"
       )

species(name = "CH2(s)",
    atoms = " C:1  H:2 ",
    thermo = (
       NASA( [  300.00,  1000.00], [  3.971265000E+00,  -1.699089000E-04, 
                1.025369000E-06,   2.492551000E-09,  -1.981266000E-12,
                4.989368000E+04,   5.753207000E-02] ),
       NASA( [ 1000.00,  4000.00], [  3.552889000E+00,   2.066788000E-03, 
               -1.914116000E-07,  -1.104673000E-10,   2.021350000E-14,
                4.984975000E+04,   1.686570000E+00] )
             ),
    transport = gas_transport(
                     geom = "linear",
                     diam =     3.80,
                     well_depth =   144.00),
    note = "31287"
       )

species(name = "PC2H4OH",
    atoms = " C:2  H:5  O:1 ",
    thermo = (
       NASA( [  300.00,  1391.00], [  1.177147110E+00,   2.481156850E-02, 
               -1.502995030E-05,   4.790067850E-09,  -6.409942110E-13,
               -4.953690430E+03,   2.200815860E+01] ),
       NASA( [ 1391.00,  5000.00], [  7.522419390E+00,   1.104927150E-02, 
               -3.725764650E-06,   5.728273970E-10,  -3.300617590E-14,
               -7.293335900E+03,  -1.249587320E+01] )
             ),
    transport = gas_transport(
                     geom = "nonlinear",
                     diam =     4.41,
                     well_depth =   470.60,
                     rot_relax =     1.50),
    note = "3/12/95 therm"
       )

species(name = "CH3CO",
    atoms = " C:2  H:3  O:1 ",
    thermo = (
       NASA( [  300.00,  1000.00], [  3.125278000E+00,   9.778220000E-03, 
                4.521448000E-06,  -9.009462000E-09,   3.193718000E-12,
               -4.108508000E+03,   1.122885000E+01] ),
       NASA( [ 1000.00,  5000.00], [  5.612279000E+00,   8.449886000E-03, 
               -2.854147000E-06,   4.238376000E-10,  -2.268404000E-14,
               -5.187863000E+03,  -3.274949000E+00] )
             ),
    transport = gas_transport(
                     geom = "nonlinear",
                     diam =     3.97,
                     well_depth =   436.00,
                     rot_relax =     2.00),
    note = "120186"
       )

species(name = "CH3CHO",
    atoms = " C:2  O:1  H:4 ",
    thermo = (
       NASA( [  300.00,  1000.00], [  2.505695000E+00,   1.336991000E-02, 
                4.671953000E-06,  -1.128140000E-08,   4.263566000E-12,
               -2.124589000E+04,   1.335089000E+01] ),
       NASA( [ 1000.00,  5000.00], [  5.868650000E+00,   1.079424000E-02, 
               -3.645530000E-06,   5.412912000E-10,  -2.896844000E-14,
               -2.264569000E+04,  -6.012946000E+00] )
             ),
    transport = gas_transport(
                     geom = "nonlinear",
                     diam =     3.97,
                     well_depth =   436.00,
                     rot_relax =     2.00),
    note = "120186"
       )

species(name = "C3H5-S",
    atoms = " C:3  H:5 ",
    thermo = (
       NASA( [  300.00,  1390.00], [  1.328073350E+00,   2.531079140E-02, 
               -1.515304390E-05,   4.743455650E-09,  -6.246660840E-13,
                3.068739030E+04,   1.833287870E+01] ),
       NASA( [ 1390.00,  5000.00], [  7.887658790E+00,   1.130125910E-02, 
               -3.842131300E-06,   5.939826770E-10,  -3.435671750E-14,
                2.823777160E+04,  -1.742915890E+01] )
             ),
    transport = gas_transport(
                     geom = "nonlinear",
                     diam =     4.22,
                     well_depth =   316.00,
                     rot_relax =     1.00),
    note = "5/27/97 therm"
       )

species(name = "C3H4-P",
    atoms = " H:4  C:3 ",
    thermo = (
       NASA( [  300.00,  1400.00], [  3.029730000E+00,   1.498961000E-02, 
               -1.398500000E-06,  -3.969619000E-09,   1.388217000E-12,
                2.148408000E+04,   8.004594000E+00] ),
       NASA( [ 1400.00,  4000.00], [  9.768102000E+00,   5.219151000E-03, 
               -3.753140000E-07,  -2.992191000E-10,   5.107878000E-14,
                1.860277000E+04,  -3.020678000E+01] )
             ),
    transport = gas_transport(
                     geom = "linear",
                     diam =     4.29,
                     well_depth =   324.80,
                     rot_relax =     1.00),
    note = "101993"
       )

species(name = "C3H5-A",
    atoms = " C:3  H:5 ",
    thermo = (
       NASA( [  300.00,  1397.00], [ -5.291319580E-01,   3.345591000E-02, 
               -2.534010270E-05,   1.028657540E-08,  -1.732583400E-12,
                1.938342260E+04,   2.530671310E+01] ),
       NASA( [ 1397.00,  5000.00], [  8.458839580E+00,   1.126954830E-02, 
               -3.837928640E-06,   5.940591190E-10,  -3.439180300E-14,
                1.635760920E+04,  -2.258094500E+01] )
             ),
    transport = gas_transport(
                     geom = "nonlinear",
                     diam =     4.22,
                     well_depth =   316.00,
                     rot_relax =     1.00),
    note = "5/27/97 therm"
       )

species(name = "C3H6",
    atoms = " C:3  H:6 ",
    thermo = (
       NASA( [  300.00,  1388.00], [  3.946154440E-01,   2.891076620E-02, 
               -1.548868080E-05,   3.888142090E-09,  -3.378903520E-13,
                1.066881640E+03,   2.190037360E+01] ),
       NASA( [ 1388.00,  5000.00], [  8.015959580E+00,   1.370236340E-02, 
               -4.662497330E-06,   7.212544020E-10,  -4.173701260E-14,
               -1.878212710E+03,  -2.001606680E+01] )
             ),
    transport = gas_transport(
                     geom = "nonlinear",
                     diam =     4.14,
                     well_depth =   307.80,
                     rot_relax =     1.00),
    note = "5/27/97 therm"
       )

species(name = "C3H4-A",
    atoms = " H:4  C:3 ",
    thermo = (
       NASA( [  300.00,  1400.00], [  2.539831000E+00,   1.633437000E-02, 
               -1.764950000E-06,  -4.647365000E-09,   1.729131000E-12,
                2.251243000E+04,   9.935702000E+00] ),
       NASA( [ 1400.00,  4000.00], [  9.776256000E+00,   5.302138000E-03, 
               -3.701118000E-07,  -3.026386000E-10,   5.089581000E-14,
                1.954972000E+04,  -3.077061000E+01] )
             ),
    transport = gas_transport(
                     geom = "linear",
                     diam =     4.29,
                     well_depth =   324.80,
                     rot_relax =     1.00),
    note = "101993"
       )

species(name = "CH3CHCO",
    atoms = " C:3  H:4  O:1 ",
    thermo = (
       NASA( [  300.00,  1400.00], [  1.483801190E+00,   3.222030130E-02, 
               -2.702500330E-05,   1.204991640E-08,  -2.183659310E-12,
               -1.152765400E+04,   1.715520680E+01] ),
       NASA( [ 1400.00,  5000.00], [  1.002191230E+01,   9.569663000E-03, 
               -3.262216440E-06,   5.052317060E-10,  -2.925932570E-14,
               -1.424827380E+04,  -2.778299730E+01] )
             ),
    transport = gas_transport(
                     geom = "nonlinear",
                     diam =     4.12,
                     well_depth =   443.20,
                     rot_relax =     1.00),
    note = "03/03/95 therm"
       )

species(name = "C3H5-T",
    atoms = " C:3  H:5 ",
    thermo = (
       NASA( [  300.00,  1382.00], [  2.179166440E+00,   2.038266230E-02, 
               -7.914138340E-06,   4.769061870E-10,   2.703985360E-13,
                2.948953380E+04,   1.487856840E+01] ),