ELEMENTS
N  C  H  O
END
SPECIES
N2              CH3             H               CH4             H2
OH              H2O             O               C2H6            C2H5
HCO             CO              CO2             O2              H2O2
HO2             C2H4            CH3OH           CH2OH           CH3O
CH2O            C2H2            C2H3            C2H             HCCO
CH2             CH              CH2CO           CH2(S)          PC2H4OH
CH3CO           CH3CHO          C3H5-S          C3H4-P          C3H5-A
C3H6            C3H4-A          CH3CHCO         C3H5-T          C4H6
NC3H7           IC3H7           C3H8            C5H9            C4H7
C4H8-1          SC4H9           PC4H9           CH3COCH3        CH3COCH2
C2H5CO          C2H5CHO         C5H10-1         CH2CHO          C5H11-1
C5H11-2         C2H5O           C2H5O2          CH3O2           CH3O2H
C3H2            O2C2H4OH        C2H4O2H         C2H3CO          C2H3CHO
C3H5O           C3H6O1-2        C3H6OOH1-2      C3H6OOH2-1      NC3H7O
IC3H7O          NC3H7O2         IC3H7O2         C4H7O           C4H8OOH1-3O2
C4H8OOH1-3      NC4KET13        C4H8OOH1-2      C4H8O1-3        PC4H9O2
C3H3            HOCHO           C2H3O1,2        NC3H7CHO        NC3H7CO
C3H6CHO-2       CH2CH2COCH3     C2H5COCH2       C2H5COC2H4P     NC3H7COCH2
NC4H9CHO        NC4H9CO         HOCH2O          C6H13-1         C6H12-1
C6H11           NC7H16          C7H15-1         C7H15-2         C7H15-3
C7H15-4         C7H15O2-1       C7H15O2H-1      C7H15O2-2       C7H15O2H-2
C7H15O2-3       C7H15O2H-3      C7H14-1         C7H14-2         C7H14-3
C7H13           C7H15O2-4       C7H15O-1        C7H15O-2        C7H15O-3
C7H14OOH1-2     C7H14OOH1-3     C7H14OOH1-4     C7H14OOH2-3     C7H14OOH2-4
C7H14OOH2-5     C7H14OOH3-1     C7H14OOH3-2     C7H14OOH3-4     C7H14OOH3-5
C7H14OOH3-6     C7H14OOH4-2     C7H14OOH4-3     C7H14O1-3       C7H14O1-4
C7H14O2-4       C7H14O2-5       C7H14O3-5       C7H14OOH1-3O2   C7H14OOH2-3O2
C7H14OOH2-4O2   C7H14OOH2-5O2   C7H14OOH3-1O2   C7H14OOH3-2O2   C7H14OOH3-4O2
C7H14OOH3-5O2   C7H14OOH3-6O2   C7H14OOH4-2O2   C7H14OOH4-3O2   NC7KET13
NC7KET23        NC7KET24        NC7KET25        NC7KET31        NC7KET32
NC7KET34        NC7KET35        NC7KET36        NC7KET42        NC7KET43
NC4H9COCH2      C4H7OOH1-4      C5H9OOH1-4      C4H7O1-4        C5H9O1-4
END
REACTIONS
CH3+H(+M)=>CH4(+M)                       2.140E+15   -0.400      0.00
H2/2.00/ H2O/5.00/ CO/2.00/ CO2/3.00/
     LOW  /  3.310E+30   -4.000   2108.03 /
     TROE/       0   1E-15    1E-15       40 /
CH4(+M)=>CH3+H(+M)                       1.054E+21   -1.400 107900.10
H2/2.00/ H2O/5.00/ CO/2.00/ CO2/3.00/
     LOW  /  1.630E+36   -5.000 110008.13 /
     TROE/       0   1E-15    1E-15       40 /
CH4+H=>CH3+H2                            1.727E+04    3.000   8223.95
CH3+H2=>CH4+H                            6.610E+02    3.000   7744.02
CH4+OH=>CH3+H2O                          1.930E+05    2.400   2106.12
CH3+H2O=>CH4+OH                          4.820E+02    2.900  14859.94
CH4+O=>CH3+OH                            2.130E+06    2.210   6479.92
CH3+OH=>CH4+O                            3.557E+04    2.210   3919.93
C2H6+CH3=>C2H5+CH4                       1.510E-07    6.000   6047.08
C2H5+CH4=>C2H6+CH3                       9.649E-10    6.560  10219.89
HCO+OH=>CO+H2O                           1.020E+14    0.000      0.00
CO+H2O=>HCO+OH                           2.896E+15    0.000 105200.05
CO+OH=>CO2+H                             1.400E+05    1.950  -1347.04
CO2+H=>CO+OH                             1.568E+07    1.950  20989.96
H+O2=>O+OH                               1.970E+14    0.000  16539.91
O+OH=>H+O2                               1.555E+13    0.000    424.95
O+H2=>H+OH                               5.080E+04    2.670   6292.07
H+OH=>O+H2                               2.231E+04    2.670   4196.94
O+H2O=>2OH                               2.970E+06    2.020  13400.10
2OH=>O+H2O                               3.013E+05    2.020  -3849.90
OH+H2=>H+H2O                             2.160E+08    1.510   3429.97
H+H2O=>OH+H2                             9.352E+08    1.510  18580.07
HCO+M=>H+CO+M                            1.860E+17   -1.000  17000.00
H2/2.50/ H2O/12.00/ CO/1.90/ CO2/3.80/
H+CO+M=>HCO+M                            6.467E+13    0.000   -441.92
H2/2.50/ H2O/12.00/ CO/1.90/ CO2/3.80/
!duplicate - pick one
!H2O2+OH=>H2O+HO2                         1.000E+12    0.000      0.00
H2O2+OH=>H2O+HO2                         5.800E+14    0.000   9559.99
!duplicate - pick one
!H2O+HO2=>H2O2+OH                         1.685E+11    0.330  31460.09
H2O+HO2=>H2O2+OH                         9.771E+13    0.330  41020.08
C2H4+O=>CH3+HCO                          1.020E+07    1.880    179.02
CH3+HCO=>C2H4+O                          2.851E+08    1.050  31770.08
H+C2H4(+M)=>C2H5(+M)                     1.081E+12    0.450   1821.94
H2/2.00/ H2O/5.00/ CO/2.00/ CO2/3.00/
     LOW  /  1.112E+34   -5.000   4447.90 /
     TROE/       1   1E-15       95      200 /
C2H5(+M)=>H+C2H4(+M)                     3.587E+14   -0.340  39570.03
H2/2.00/ H2O/5.00/ CO/2.00/ CO2/3.00/
     LOW  /  3.690E+36   -5.790  42195.98 /
     TROE/       1   1E-15       95      200 /
CH3OH(+M)=>CH3+OH(+M)                    1.900E+16    0.000  91729.92
H2/2.00/ H2O/16.00/ CO/2.00/ CO2/3.00/
     LOW  /  2.950E+44   -7.350  95460.09 /
     TROE/   0.414     279     5459   1E+100 /
CH3+OH(+M)=>CH3OH(+M)                    9.181E+10    1.000    744.98
H2/2.00/ H2O/16.00/ CO/2.00/ CO2/3.00/
     LOW  /  1.425E+39   -6.350   4475.14 /
     TROE/   0.414     279     5459   1E+100 /
C2H6+H=>C2H5+H2                          5.540E+02    3.500   5167.07
C2H5+H2=>C2H6+H                          1.355E-01    4.060   8857.07
CH3OH+HO2=>CH2OH+H2O2                    3.980E+13    0.000  19400.10
CH2OH+H2O2=>CH3OH+HO2                    3.130E+15   -0.900  10750.00
C2H5+O2=>C2H4+HO2                        1.220E+30   -5.760  10099.90
C2H4+HO2=>C2H5+O2                        1.259E+30   -5.630  22309.99
C2H6+OH=>C2H5+H2O                        5.125E+06    2.060    854.92
C2H5+H2O=>C2H6+OH                        1.010E+07    2.060  22979.92
C2H6+O=>C2H5+OH                          1.130E+14    0.000   7849.90
C2H5+OH=>C2H6+O                          2.080E+13    0.000  12719.89
CH3+HO2=>CH3O+OH                         1.100E+13    0.000      0.00
CH3O+OH=>CH3+HO2                         4.780E+14   -0.350  24549.95
CO+HO2=>CO2+OH                           3.010E+13    0.000  23000.00
CO2+OH=>CO+HO2                           6.435E+15   -0.330  84609.94
2CH3(+M)=>C2H6(+M)                       9.214E+16   -1.170    635.76
H2/2.00/ H2O/5.00/ CO/2.00/ CO2/3.00/
     LOW  /  1.135E+36   -5.246   1705.07 /
     TROE/   0.405    1120     69.6    1E+15 /
C2H6(+M)=>2CH3(+M)                       4.709E+21   -1.700  87409.89
H2/2.00/ H2O/5.00/ CO/2.00/ CO2/3.00/
     LOW  /  5.801E+40   -5.776  88479.21 /
     TROE/   0.405    1120     69.6    1E+15 /
H2O+M=>H+OH+M                            1.837E+27   -3.000 122599.90
H2/2.50/ H2O/12.00/ CO/1.90/ CO2/3.80/
H+OH+M=>H2O+M                            2.250E+22   -2.000      0.00
H2/2.50/ H2O/12.00/ CO/1.90/ CO2/3.80/
H+O2(+M)=>HO2(+M)                        1.475E+12    0.600      0.00
H2/2.50/ H2O/12.00/ CO/1.90/ CO2/3.80/
     LOW  /  3.500E+16   -0.410  -1115.92 /
     TROE/     0.5   1E-30    1E+30   1E+100 /
HO2(+M)=>H+O2(+M)                        5.053E+14   -0.070  49960.09
H2/2.50/ H2O/12.00/ CO/1.90/ CO2/3.80/
     LOW  /  1.199E+19   -1.080  48844.17 /
     TROE/     0.5   1E-30    1E+30   1E+100 /
CO+O(+M)=>CO2(+M)                        1.800E+10    0.000   2384.08
H2/2.50/ H2O/12.00/ CO/1.90/ CO2/3.80/
     LOW  /  1.350E+24   -2.788   4190.97 /
CO2+M=>CO+O+M                            1.670E+16   -1.000 130099.90
H2/2.50/ H2O/12.00/ CO/1.90/ CO2/3.80/
CO+O2=>CO2+O                             1.068E-15    7.130  13320.03
CO2+O=>CO+O2                             9.444E-15    7.130  19539.91
HCO+H=>CO+H2                             7.340E+13    0.000      0.00
CO+H2=>HCO+H                             4.813E+14    0.000  90000.00
HCO+O=>CO+OH                             3.020E+13    0.000      0.00
CO+OH=>HCO+O                             8.697E+13    0.000  87900.10
CH2O+M=>HCO+H+M                          6.283E+29   -3.570  93200.05

HCO+H+M=>CH2O+M                          2.660E+24   -2.570    427.10

CH2O+OH=>HCO+H2O                         3.430E+09    1.180   -446.94
HCO+H2O=>CH2O+OH                         1.186E+09    1.180  29380.02
CH2O+H=>HCO+H2                           9.334E+08    1.500   2976.10
HCO+H2=>CH2O+H                           7.453E+07    1.500  17650.10
CH2O+O=>HCO+OH                           4.160E+11    0.570   2761.95
HCO+OH=>CH2O+O                           1.459E+10    0.570  15340.11
CH3+OH=>CH2O+H2                          2.250E+13    0.000   4299.95
CH2O+H2=>CH3+OH                          6.756E+14    0.000  76030.11
CH3+O=>CH2O+H                            8.000E+13    0.000      0.00
CH2O+H=>CH3+O                            1.055E+15    0.000  69630.02
CH3+O2=>CH3O+O                           1.995E+18   -1.570  29210.09
CH3O+O=>CH3+O2                           3.585E+18   -1.590  -1630.98
CH2O+CH3=>HCO+CH4                        3.636E-06    5.420    998.09
HCO+CH4=>CH2O+CH3                        7.584E-06    5.420  16150.10
HCO+CH3=>CH4+CO                          1.210E+14    0.000      0.00
CH4+CO=>HCO+CH3                          2.073E+16    0.000  90479.92
CH3O(+M)=>CH2O+H(+M)                     5.450E+13    0.000  13500.00

     LOW  /  2.344E+25   -2.700  30599.90 /
CH2O+H+M=>CH3O+M                         3.812E+09    1.020  -7489.01

C2H4(+M)=>C2H2+H2(+M)                    1.800E+13    0.000  76000.00

     LOW  /  1.500E+15    0.000  55443.12 /
C2H2+H2+M=>C2H4+M                        1.877E+11    0.170  34780.11

HO2+O=>OH+O2                             3.250E+13    0.000      0.00
OH+O2=>HO2+O                             7.857E+14   -0.330  55390.06
HCO+HO2=>CH2O+O2                         2.974E+10    0.330  -3860.90
CH2O+O2=>HCO+HO2                         2.050E+13    0.000  38950.05
CH3O+O2=>CH2O+HO2                        5.500E+10    0.000   2424.00
CH2O+HO2=>CH3O+O2                        1.318E+09    0.350  31390.06
CH3+HO2=>CH4+O2                          3.600E+12    0.000      0.00
CH4+O2=>CH3+HO2                          5.177E+15   -0.330  57960.09
HCO+O2=>CO+HO2                           7.580E+12    0.000    409.89
CO+HO2=>HCO+O2                           9.029E+11    0.330  32929.97
HO2+H=>2OH                               7.080E+13    0.000    299.95
2OH=>HO2+H                               1.352E+14   -0.330  39570.03
HO2+H=>H2+O2                             1.660E+13    0.000    820.03
H2+O2=>HO2+H                             9.138E+14   -0.330  58299.95
HO2+OH=>H2O+O2                           2.890E+13    0.000   -500.00
H2O+O2=>HO2+OH                           6.888E+15   -0.330  72140.06
!duplicate - pick one
!H2O2+O2=>2HO2                            5.942E+17   -0.660  53150.10
H2O2+O2=>2HO2                            1.839E+14   -0.660  39549.95
2HO2=>H2O2+O2                            4.200E+14    0.000  11979.92
!duplicate - pick one
!2HO2=>H2O2+O2                            1.300E+11    0.000  -1629.06
2OH(+M)=>H2O2(+M)                        1.236E+14   -0.370      0.00
H2/2.50/ H2O/12.00/ CO/1.90/ CO2/3.80/
     LOW  /  3.041E+30   -4.630   2049.00 /
     TROE/    0.47     100     2000    1E+15 /
H2O2(+M)=>2OH(+M)                        3.138E+19   -1.370  51859.94
H2/2.50/ H2O/12.00/ CO/1.90/ CO2/3.80/
     LOW  /  7.721E+35   -5.630  53908.94 /
     TROE/    0.47     100     2000    1E+15 /
H2O2+H=>H2O+OH                           2.410E+13    0.000   3969.89
H2O+OH=>H2O2+H                           7.750E+12    0.000  74710.09
CH4+HO2=>CH3+H2O2                        3.420E+11    0.000  19289.91
CH3+H2O2=>CH4+HO2                        3.365E+11   -0.330   2501.91
CH2O+HO2=>HCO+H2O2                       5.820E-03    4.530   6556.88
HCO+H2O2=>CH2O+HO2                       1.194E-02    4.200   4920.89
OH+M=>O+H+M                              3.909E+22   -2.000 105299.95
H2/2.50/ H2O/12.00/ CO/1.90/ CO2/3.80/
O+H+M=>OH+M                              4.720E+18   -1.000      0.00
H2/2.50/ H2O/12.00/ CO/1.90/ CO2/3.80/
O2+M=>2O+M                               6.473E+20   -1.500 121500.00
H2/2.50/ H2O/12.00/ CO/1.90/ CO2/3.80/
2O+M=>O2+M                               6.170E+15   -0.500      0.00
H2/2.50/ H2O/12.00/ CO/1.90/ CO2/3.80/
H2+M=>2H+M                               4.570E+19   -1.400 104400.10
H2/2.50/ H2O/12.00/ CO/1.90/ CO2/3.80/
2H+M=>H2+M                               2.423E+15   -0.400  -3039.91
H2/2.50/ H2O/12.00/ CO/1.90/ CO2/3.80/
C2H3+H(+M)=>C2H4(+M)                     6.100E+12    0.270    280.11

     LOW  /  9.800E+29   -3.860   3320.03 /
     TROE/   0.782     208     2663     6095 /
C2H4(+M)=>C2H3+H(+M)                     1.692E+15    0.100 107099.90

     LOW  /  2.718E+32   -4.030 110139.82 /
     TROE/   0.782     208     2663     6095 /
C2H5+C2H3=>2C2H4                         3.000E+12    0.000      0.00
2C2H4=>C2H5+C2H3                         4.820E+14    0.000  71530.11
C2H2+H(+M)=>C2H3(+M)                     3.110E+11    0.580   2588.91
H2/2.00/ H2O/5.00/ CO/2.00/ CO2/3.00/
     LOW  /  2.254E+40   -7.269   6576.96 /
     TROE/       1   1E-15      675    1E+15 /
C2H3(+M)=>C2H2+H(+M)                     2.028E+15   -0.420  44460.09
H2/2.00/ H2O/5.00/ CO/2.00/ CO2/3.00/
     LOW  /  1.470E+44   -8.269  48448.14 /
     TROE/       1   1E-15      675    1E+15 /
C2H4+H=>C2H3+H2                          8.420E-03    4.620   2582.93
C2H3+H2=>C2H4+H                          5.723E-01    3.790   3233.03
C2H4+OH=>C2H3+H2O                        2.020E+13    0.000   5955.07
C2H3+H2O=>C2H4+OH                        1.015E+13    0.000  20219.89
C2H3+O2=>C2H2+HO2                        5.190E-15   -1.260   3309.99
!duplicate - pick one
!C2H3+O2=>C2H2+HO2                        2.120E-06    6.000   9483.99
C2H2+HO2=>C2H3+O2                        2.727E-16   -0.930  11400.10
!duplicate - pick one
!C2H2+HO2=>C2H3+O2                        1.114E-07    6.330  17570.03
C2H2+M=>C2H+H+M                          4.200E+16    0.000 107000.00

C2H+H+M=>C2H2+M                          7.130E+07    2.080 -28909.89

C2H2+O2=>HCCO+OH                         2.000E+08    1.500  30099.90
HCCO+OH=>C2H2+O2                         2.232E+05    1.500  25400.10
CH2+O2=>CO+H2O                           7.280E+19   -2.540   1809.03
CO+H2O=>CH2+O2                           8.508E+20   -2.540 179799.95
C2H2+OH=>C2H+H2O                         3.370E+07    2.000  14000.00
C2H+H2O=>C2H2+OH                         4.671E+03    3.080    684.99
O+C2H2=>C2H+OH                           3.160E+15   -0.600  15000.00
C2H+OH=>O+C2H2                           4.443E+10    0.480 -15570.03
C2H2+O=>CH2+CO                           6.120E+06    2.000   1900.10
CH2+CO=>C2H2+O                           1.152E+06    2.000  52570.03
C2H+O2=>HCO+CO                           2.410E+12    0.000      0.00
HCO+CO=>C2H+O2                           1.328E+16   -1.080 154099.90
C2H+O=>CO+CH                             1.810E+13    0.000      0.00
CO+CH=>C2H+O                             7.478E+16   -1.080  82130.02
CH2+O2=>HCO+OH                           1.290E+20   -3.300    283.94
HCO+OH=>CH2+O2                           5.310E+19   -3.300  73169.93
CH2+O=>CO+2H                             5.000E+13    0.000      0.00
CO+2H=>CH2+O                             0.000E+00    0.000      0.00
CH2+H=>CH+H2                             1.000E+18   -1.560      0.00
CH+H2=>CH2+H                             7.026E+17   -1.560   2989.96
CH2+OH=>CH+H2O                           1.130E+07    2.000   3000.00
CH+H2O=>CH2+OH                           3.437E+07    2.000  21150.10
CH2+O2=>CO2+2H                           3.290E+21   -3.300   2868.07
CO2+2H=>CH2+O2                           0.000E+00    0.000      0.00
CH+O2=>HCO+O                             3.300E+13    0.000      0.00
HCO+O=>CH+O2                             4.402E+13    0.000  71989.96
CH3OH+OH=>CH2OH+H2O                      7.100E+06    1.800   -596.08
CH2OH+H2O=>CH3OH+OH                      3.293E+01    3.460  22719.89
CH3OH+H=>CH3O+H2                         3.600E+12    0.000   6094.89
CH3O+H2=>CH3OH+H                         7.467E+12   -0.020   7825.05
CH3OH+H=>CH2OH+H2                        1.440E+13    0.000   6094.89
CH2OH+H2=>CH3OH+H                        1.543E+07    1.660  14250.00
CH3OH+CH3=>CH2OH+CH4                     3.190E+01    3.170   7172.08
CH2OH+CH4=>CH3OH+CH3                     8.927E-04    4.830  15809.99
CH3OH+O=>CH2OH+OH                        3.880E+05    2.500   3080.07
CH2OH+OH=>CH3OH+O                        4.960E+03    2.500   8781.07
CH2OH+O2=>CH2O+HO2                       3.810E+06    2.000   1641.01
CH2O+HO2=>CH2OH+O2                       1.768E+11    0.670  24179.97
CH2OH(+M)=>CH2O+H(+M)                    2.800E+14   -0.730  32820.03

     LOW  /  6.010E+33   -5.390  36200.05 /
     TROE/    0.96    67.6     1855     7543 /
CH2O+H(+M)=>CH2OH(+M)                    3.792E+16   -1.390   5402.01

     LOW  /  8.139E+35   -6.050   8782.03 /
     TROE/    0.96    67.6     1855     7543 /
H2O2+O=>OH+HO2                           9.550E+06    2.000   3969.89
OH+HO2=>H2O2+O                           2.541E+07    1.680  19849.90
C2H2+O=>HCCO+H                           1.430E+07    2.000   1900.10
HCCO+H=>C2H2+O                           2.021E+05    2.000  13309.99
C2H2+OH=>CH2CO+H                         2.190E-04    4.500  -1000.00
CH2CO+H=>C2H2+OH                         2.161E-03    4.500  19669.93
CH2CO+H=>CH3+CO                          1.100E+13    0.000   3400.10
CH3+CO=>CH2CO+H                          2.400E+12    0.000  40200.05
CH2CO+O=>CH2+CO2                         1.750E+12    0.000   1349.90
CH2+CO2=>CH2CO+O                         3.739E+12    0.000  53690.01
CH2+O2=>CH2O+O                           3.290E+21   -3.300   2868.07
CH2O+O=>CH2+O2                           3.862E+22   -3.300  63179.97
CH2CO(+M)=>CH2+CO(+M)                    3.000E+14    0.000  70979.92

     LOW  /  3.600E+15    0.000  59270.08 /
CH2+CO+M=>CH2CO+M                        6.909E+08    1.000  -4359.94

CH2CO+O=>HCCO+OH                         1.000E+13    0.000   8000.00
HCCO+OH=>CH2CO+O                         1.432E+10    0.000  -1255.02
CH2CO+OH=>HCCO+H2O                       1.000E+13    0.000   2000.00
HCCO+H2O=>CH2CO+OH                       1.412E+11    0.000   9994.98
CH2CO+H=>HCCO+H2                         2.000E+14    0.000   8000.00
HCCO+H2=>CH2CO+H                         6.522E+11    0.000    840.11
HCCO+OH=>2HCO                            1.000E+13    0.000      0.00
2HCO=>HCCO+OH                            4.820E+13    0.000  40359.94
HCCO+H=>CH2(S)+CO                        1.100E+14    0.000      0.00
CH2(S)+CO=>HCCO+H                        6.660E+13    0.000  39260.04
HCCO+O=>H+2CO                            8.000E+13    0.000      0.00
H+2CO=>HCCO+O                            0.000E+00    0.000      0.00
C2H6+O2=>C2H5+HO2                        4.000E+13    0.000  50900.10
C2H5+HO2=>C2H6+O2                        3.000E+11    0.000      0.00
C2H6+HO2=>C2H5+H2O2                      1.700E+13    0.000  20460.09
C2H5+H2O2=>C2H6+HO2                      1.069E+11    0.240   7842.02
CH2+O2=>CO2+H2                           1.010E+21   -3.300   1507.89
CO2+H2=>CH2+O2                           3.054E+23   -3.300 186700.05
CH3+C2H3=>CH4+C2H2                       3.920E+11    0.000      0.00
CH4+C2H2=>CH3+C2H3                       2.962E+13    0.000  66049.95
CH3+C2H5=>CH4+C2H4                       1.950E+13   -0.500      0.00
CH4+C2H4=>CH3+C2H5                       2.895E+16   -0.700  70169.93
CH3OH+CH2O=>2CH3O                        3.835E+13    0.050  84719.89
2CH3O=>CH3OH+CH2O                        6.030E+13    0.000      0.00
CH2O+CH3O=>CH3OH+HCO                     1.150E+11    0.000   1280.11
CH3OH+HCO=>CH2O+CH3O                     3.020E+11    0.000  18159.89
CH4+CH3O=>CH3+CH3OH                      1.570E+11    0.000   8842.02
CH3+CH3OH=>CH4+CH3O                      1.046E+09    0.000  50000.00
C2H6+CH3O=>C2H5+CH3OH                    3.000E+11    0.000   7000.00
C2H5+CH3OH=>C2H6+CH3O                    1.714E+10    0.000  50000.00
C2H3+H=>C2H2+H2                          2.000E+13    0.000   2500.00
C2H2+H2=>C2H3+H                          1.331E+13    0.000  68080.07
CH3O+CH3OH=>CH2OH+CH3OH                  3.000E+11    0.000   4074.09
CH2OH+CH3OH=>CH3O+CH3OH                  1.549E+05    1.680  10500.00
CH3OH+OH=>CH3O+H2O                       1.000E+06    2.100    496.65
CH3O+H2O=>CH3OH+OH                       8.981E+06    2.080  17380.02
C2H5+H=>2CH3                             3.610E+13    0.000      0.00
2CH3=>C2H5+H                             5.446E+16   -1.030  16979.92
C2H3+O2=>CH2O+HCO                        1.700E+29   -5.310   6500.00
CH2O+HCO=>C2H3+O2                        1.657E+29   -5.310  93049.95
C2H6=>C2H5+H                             2.783E+21   -1.560 103799.95
C2H5+H=>C2H6                             3.610E+13    0.000      0.00
PC2H4OH=>C2H4+OH                        1.293E+12   -0.370  26849.90
C2H4+OH=>PC2H4OH                        9.930E+11    0.000   -960.09
C2H4+CH3=>C2H3+CH4                       6.620E+00    3.700   9500.00
C2H3+CH4=>C2H4+CH3                       1.440E+00    4.020   5472.04
CH3CO(+M)=>CH3+CO(+M)                    3.000E+12    0.000  16719.89

     LOW  /  1.200E+15    0.000  12517.93 /
CH3+CO+M=>CH3CO+M                        9.623E+11   -0.130   9777.96

CH3CHO=>CH3+HCO                          2.614E+15    0.150  80549.95
CH3+HCO=>CH3CHO                          2.000E+13    0.000      0.00
CH3CHO+O2=>CH3CO+HO2                     3.010E+13    0.000  39150.10
CH3CO+HO2=>CH3CHO+O2                     8.552E+10    0.320  -1940.01
CH3CHO+OH=>CH3CO+H2O                     2.000E+06    1.800   1299.95
CH3CO+H2O=>CH3CHO+OH                     1.354E+06    1.790  32849.90
CH3CHO+H=>CH3CO+H2                       1.340E+13    0.000   3299.95
CH3CO+H2=>CH3CHO+H                       2.096E+12   -0.010  19690.01
CH3CHO+O=>CH3CO+OH                       5.940E+12    0.000   1868.07
CH3CO+OH=>CH3CHO+O                       4.080E+11   -0.010  16169.93
CH3CHO+HO2=>CH3CO+H2O2                   3.010E+12    0.000  11929.97
CH3CO+H2O2=>CH3CHO+HO2                   1.210E+13   -0.340  12010.04
CH3CHO+CH3=>CH3CO+CH4                    2.608E+06    1.780   5911.09
CH3CO+CH4=>CH3CHO+CH3                    1.066E+07    1.770  22789.91
C3H5-S=>C2H2+CH3                         9.598E+39   -8.170  42030.11
C2H2+CH3=>C3H5-S                         1.610E+40   -8.580  20330.07
C2H2+CH3=>C3H4-P+H                       1.211E+17   -1.200  16679.97
C3H4-P+H=>C2H2+CH3                       1.000E+14    0.000   4000.00
C3H5-A=>C2H2+CH3                         2.397E+48   -9.900  82080.07
C2H2+CH3=>C3H5-A                         2.610E+46   -9.820  36950.05
C3H6=>C2H3+CH3                           2.730E+62  -13.280 123200.05
C2H3+CH3=>C3H6                           4.712E+59  -13.190  29539.91
C2H2+CH3=>C3H4-A+H                       6.740E+19   -2.080  31590.11
C3H4-A+H=>C2H2+CH3                       1.149E+16   -0.700  15789.91
C3H6=>C3H5-A+H                           2.010E+61  -13.260 118500.00
C3H5-A+H=>C3H6                           4.887E+56  -12.250  28080.07
C3H6+O=>CH2CO+CH3+H                      2.500E+07    1.760     76.00
CH2CO+CH3+H=>C3H6+O                      0.000E+00    0.000      0.00
C3H6+O=>C2H5+HCO                         1.580E+07    1.760  -1216.06
C2H5+HCO=>C3H6+O                         1.402E+05    1.880  26510.04
C3H6+O=>CH3CHCO+2H                       2.500E+07    1.760     76.00
CH3CHCO+2H=>C3H6+O                       0.000E+00    0.000      0.00
C3H6=>C3H5-S+H                           7.710E+69  -16.090 140000.00
C3H5-S+H=>C3H6                           1.217E+63  -14.600  26159.89
C3H6+HO2=>C3H5-A+H2O2                    1.500E+11    0.000  14190.01
C3H5-A+H2O2=>C3H6+HO2                    5.867E+05    1.330   9759.08
C3H6+HO2=>C3H5-S+H2O2                    7.500E+09    0.000  12570.03
C3H5-S+H2O2=>C3H6+HO2                    2.308E+04    1.270 -13419.93
C3H6+HO2=>C3H5-T+H2O2                    3.000E+09    0.000   9929.97
C3H5-T+H2O2=>C3H6+HO2                    9.234E+03    1.270 -14059.99
C3H6+OH=>C3H5-A+H2O                      3.120E+06    2.000   -298.04
C3H5-A+H2O=>C3H6+OH                      6.194E+06    2.010  31880.02
C3H6+OH=>C3H5-S+H2O                      2.110E+06    2.000   2777.96
C3H5-S+H2O=>C3H6+OH                      2.719E+04    2.490  11530.11
C4H6=>2C2H3                              4.027E+19   -1.000  98150.10
2C2H3=>C4H6                              1.260E+13    0.000      0.00
C4H6+OH=>C2H5+CH2CO                      1.000E+12    0.000      0.00
C2H5+CH2CO=>C4H6+OH                      3.730E+12    0.000  30020.08
C4H6+OH=>CH2O+C3H5-A                     1.000E+12    0.000      0.00
CH2O+C3H5-A=>C4H6+OH                     3.501E+06    0.000  71059.99
C4H6+OH=>C2H3+CH3CHO                     1.000E+12    0.000      0.00
C2H3+CH3CHO=>C4H6+OH                     5.437E+11    0.000  18549.95
C4H6+O=>C2H4+CH2CO                       1.000E+12    0.000      0.00
C2H4+CH2CO=>C4H6+O                       6.377E+11    0.000  94340.11
C4H6+O=>CH2O+C3H4-A                      1.000E+12    0.000      0.00
CH2O+C3H4-A=>C4H6+O                      1.075E+12    0.000  79049.95
C2H4+O2=>C2H3+HO2                        4.000E+13    0.000  58200.05
C2H3+HO2=>C2H4+O2                        4.939E+13   -0.500   1368.07
CH2O+M=>CO+H2+M                          1.826E+32   -4.420  87119.98

CO+H2+M=>CH2O+M                          5.070E+27   -3.420  84349.90

NC3H7=>CH3+C2H4                         2.284E+14   -0.550  28400.10
CH3+C2H4=>NC3H7                         4.100E+11    0.000   7204.11
NC3H7=>H+C3H6                           2.667E+15   -0.640  36820.03
H+C3H6=>NC3H7                           1.000E+13    0.000   2500.00
NC3H7+O2=>C3H6+HO2                      3.000E+11    0.000   3000.00
C3H6+HO2=>NC3H7+O2                      2.000E+11    0.000  17500.00
C2H4+CH3O=>C2H3+CH3OH                    1.200E+11    0.000   6750.00
C2H3+CH3OH=>C2H4+CH3O                    1.000E+10    0.000   9000.00
C3H6+OH=>C3H5-T+H2O                      1.110E+06    2.000   1451.00
C3H5-T+H2O=>C3H6+OH                      3.276E+03    2.690  12309.99
C3H6+O=>C3H5-A+OH                        5.240E+11    0.700   5884.08
C3H5-A+OH=>C3H6+O                        1.055E+11    0.710  20820.03
C3H6+O=>C3H5-S+OH                        1.200E+11    0.700   8958.89
C3H5-S+OH=>C3H6+O                        1.569E+08    1.190    460.09
C3H6+O=>C3H5-T+OH                        6.030E+10    0.700   7631.93
C3H5-T+OH=>C3H6+O                        1.805E+07    1.390   1243.07
C3H6+H=>C3H5-A+H2                        1.730E+05    2.500   2492.11
C3H5-A+H2=>C3H6+H                        7.933E+04    2.510  19520.08
C3H6+O2=>C3H5-S+HO2                      2.000E+12    0.000  62900.10
C3H5-S+HO2=>C3H6+O2                      1.081E+08    0.820   -983.99
C3H6+H=>C2H4+CH3                         4.830E+33   -5.810  18500.00
C2H4+CH3=>C3H6+H                         2.313E+33   -5.900  31619.98
IC3H7=>H+C3H6                           8.569E+18   -1.570  40340.11
H+C3H6=>IC3H7                           1.300E+13    0.000   1559.99
IC3H7+H=>C3H6+H2                        2.000E+13    0.000      0.00
C3H6+H2=>IC3H7+H                        4.822E+09    0.690  12090.11
IC3H7+O2=>C3H6+HO2                      4.500E+11    0.000   5020.08
C3H6+HO2=>IC3H7+O2                      2.000E+11    0.000  17500.00
C3H8=>CH3+C2H5                           7.900E+22   -1.800  88630.02
CH3+C2H5=>C3H8                           3.659E+14   -0.360    989.01
C3H8+O2=>IC3H7+HO2                      4.000E+13    0.000  47500.00
IC3H7+HO2=>C3H8+O2                      2.080E+12    0.000      0.00
C3H8+O2=>NC3H7+HO2                      4.000E+13    0.000  47500.00
NC3H7+HO2=>C3H8+O2                      2.080E+12    0.000      0.00
H+C3H8=>H2+IC3H7                        1.300E+06    2.400   4471.08
H2+IC3H7=>H+C3H8                        4.709E+05    2.150  12179.97
H+C3H8=>H2+NC3H7                        1.880E+05    2.750   6280.11
H2+NC3H7=>H+C3H8                        2.756E+01    3.440   9530.11
C3H8+O=>IC3H7+OH                        2.810E+13    0.000   5200.05
IC3H7+OH=>C3H8+O                        1.870E+12    0.000   9607.07
C3H8+O=>NC3H7+OH                        1.130E+14    0.000   7849.90
NC3H7+OH=>C3H8+O                        7.530E+12    0.000  12260.04
C3H8+OH=>NC3H7+H2O                      1.054E+10    0.970   1586.04
NC3H7+H2O=>C3H8+OH                      6.931E+09    0.970  23250.00
C3H8+OH=>IC3H7+H2O                      4.670E+07    1.610    -34.89
IC3H7+H2O=>C3H8+OH                      3.071E+07    1.610  21630.02
C3H8+HO2=>IC3H7+H2O2                    5.600E+12    0.000  17700.05
IC3H7+H2O2=>C3H8+HO2                    4.160E+11    0.000   7425.91
C3H8+HO2=>NC3H7+H2O2                    1.680E+13    0.000  20429.97
NC3H7+H2O2=>C3H8+HO2                    2.330E+12    0.000   9826.00
CH3+C3H8=>CH4+IC3H7                     3.980E+11    0.000   9500.00
CH4+IC3H7=>CH3+C3H8                     1.585E+12    0.000  16479.92
CH3+C3H8=>CH4+NC3H7                     1.290E+12    0.000  11599.90
CH4+NC3H7=>CH3+C3H8                     5.129E+12    0.000  18580.07
IC3H7+C3H8=>NC3H7+C3H8                 3.000E+10    0.000  12900.10
NC3H7+C3H8=>IC3H7+C3H8                 3.000E+10    0.000  12900.10